Version 4
SHEET 1 920 680
WIRE 240 32 80 32
WIRE 432 32 320 32
WIRE 592 32 432 32
WIRE 80 80 80 32
WIRE 592 96 592 32
WIRE 432 144 432 32
WIRE 80 256 80 160
WIRE 432 256 432 208
WIRE 432 256 80 256
WIRE 592 256 592 176
WIRE 592 256 432 256
WIRE 432 320 432 256
FLAG 432 320 0
SYMBOL res 336 16 R90
WINDOW 0 0 56 VBottom 2
WINDOW 3 32 56 VTop 2
SYMATTR InstName R1
SYMATTR Value 33k
SYMBOL voltage 80 64 R0
WINDOW 123 24 124 Left 2
WINDOW 39 0 0 Left 0
SYMATTR Value2 AC 1 0
SYMATTR InstName V2
SYMATTR Value ""
SYMBOL cap 416 144 R0
SYMATTR InstName C1
SYMATTR Value 100n
SYMBOL res 576 80 R0
SYMATTR InstName RL
SYMATTR Value 22k
TEXT 48 376 Left 2 !.ac dec 20 0.01 100000
