Version 4
SHEET 1 964 680
WIRE 864 -144 592 -144
WIRE 784 -96 672 -96
WIRE 784 0 784 -16
WIRE 672 16 672 -96
WIRE 240 32 80 32
WIRE 432 32 320 32
WIRE 592 32 592 -144
WIRE 640 32 592 32
WIRE 864 48 864 -144
WIRE 864 48 704 48
WIRE 896 48 864 48
WIRE 432 64 432 32
WIRE 640 64 432 64
WIRE 80 80 80 32
WIRE 896 96 896 48
WIRE 672 112 672 80
WIRE 432 144 432 64
WIRE 672 224 672 192
WIRE 896 224 896 176
WIRE 896 224 672 224
WIRE 672 240 672 224
WIRE 80 256 80 160
WIRE 432 256 432 208
WIRE 432 256 80 256
WIRE 432 320 432 256
FLAG 432 320 0
FLAG 784 0 0
FLAG 672 240 0
SYMBOL voltage 672 96 R0
SYMATTR InstName V1
SYMATTR Value -10
SYMBOL voltage 784 -112 R0
SYMATTR InstName V3
SYMATTR Value 10
SYMBOL res 336 16 R90
WINDOW 0 0 56 VBottom 2
WINDOW 3 32 56 VTop 2
SYMATTR InstName R1
SYMATTR Value 33k
SYMBOL voltage 80 64 R0
WINDOW 123 24 124 Left 2
WINDOW 39 0 0 Left 0
SYMATTR Value2 AC 1 0
SYMATTR InstName V2
SYMATTR Value ""
SYMBOL cap 416 144 R0
SYMATTR InstName C1
SYMATTR Value 100n
SYMBOL res 880 80 R0
SYMATTR InstName R2
SYMATTR Value 22k
SYMBOL OpAmps\\UniversalOpAmp 672 48 R0
SYMATTR InstName U1
TEXT 48 376 Left 2 !.ac dec 10 0.01 100000
