Version 4
SHEET 1 1268 680
WIRE 960 -112 768 -112
WIRE 1168 -112 960 -112
WIRE 416 -96 224 -96
WIRE 624 -96 416 -96
WIRE 1104 -80 1040 -80
WIRE 560 -64 496 -64
WIRE 1040 -64 1040 -80
WIRE 1104 -64 1104 -80
WIRE 496 -48 496 -64
WIRE 560 -48 560 -64
WIRE 768 -16 768 -112
WIRE 224 0 224 -96
WIRE 1040 48 1040 16
WIRE 496 64 496 32
WIRE 960 64 960 -112
WIRE 1008 64 960 64
WIRE 416 80 416 -96
WIRE 464 80 416 80
WIRE 1168 80 1168 -112
WIRE 1168 80 1072 80
WIRE 624 96 624 -96
WIRE 624 96 528 96
WIRE 672 96 624 96
WIRE 768 96 768 64
WIRE 768 96 736 96
WIRE 832 96 768 96
WIRE 960 96 896 96
WIRE 1008 96 960 96
WIRE 80 112 -48 112
WIRE 224 112 224 80
WIRE 224 112 144 112
WIRE 288 112 224 112
WIRE 416 112 352 112
WIRE 464 112 416 112
WIRE -48 128 -48 112
WIRE 960 128 960 96
WIRE 416 144 416 112
WIRE 1040 144 1040 112
WIRE 496 160 496 128
WIRE -48 256 -48 208
WIRE 960 256 960 208
WIRE 1040 256 1040 224
WIRE 416 272 416 224
WIRE 496 272 496 240
FLAG -48 256 0
FLAG 496 272 0
FLAG 560 -48 0
FLAG 416 272 0
FLAG 1040 256 0
FLAG 1104 -64 0
FLAG 960 256 0
SYMBOL voltage -48 112 R0
WINDOW 123 24 124 Left 2
WINDOW 39 0 0 Left 0
SYMATTR InstName V1
SYMATTR Value ""
SYMATTR Value2 AC 1 0
SYMBOL cap 144 96 R90
WINDOW 0 0 32 VBottom 2
WINDOW 3 32 32 VTop 2
SYMATTR InstName C1
SYMATTR Value 100n
SYMBOL res 208 -16 R0
SYMATTR InstName R1
SYMATTR Value 6089
SYMBOL cap 352 96 R90
WINDOW 0 0 32 VBottom 2
WINDOW 3 32 32 VTop 2
SYMATTR InstName C2
SYMATTR Value 100n
SYMBOL res 400 128 R0
WINDOW 0 -47 66 Left 2
WINDOW 3 -68 97 Left 2
SYMATTR InstName R2
SYMATTR Value 41609
SYMBOL OpAmps\\OP113 496 32 R0
SYMATTR InstName U1
SYMBOL voltage 496 144 R0
WINDOW 123 0 0 Left 0
WINDOW 39 0 0 Left 0
SYMATTR InstName V2
SYMATTR Value -10
SYMBOL voltage 496 48 R180
WINDOW 0 24 96 Left 2
WINDOW 3 24 16 Left 2
WINDOW 123 0 0 Left 0
WINDOW 39 0 0 Left 0
SYMATTR InstName V3
SYMATTR Value 10
SYMBOL cap 736 80 R90
WINDOW 0 0 32 VBottom 2
WINDOW 3 32 32 VTop 2
SYMATTR InstName C3
SYMATTR Value 100n
SYMBOL res 752 -32 R0
WINDOW 0 41 7 Left 2
WINDOW 3 39 47 Left 2
SYMATTR InstName R3
SYMATTR Value 14699
SYMBOL cap 896 80 R90
WINDOW 0 0 32 VBottom 2
WINDOW 3 32 32 VTop 2
SYMATTR InstName C4
SYMATTR Value 100n
SYMBOL res 944 112 R0
WINDOW 0 -38 42 Left 2
WINDOW 3 -79 68 Left 2
SYMATTR InstName R4
SYMATTR Value 17234
SYMBOL OpAmps\\OP113 1040 16 R0
SYMATTR InstName U2
SYMBOL voltage 1040 128 R0
WINDOW 123 0 0 Left 0
WINDOW 39 0 0 Left 0
SYMATTR InstName V4
SYMATTR Value -10
SYMBOL voltage 1040 32 R180
WINDOW 0 24 96 Left 2
WINDOW 3 24 16 Left 2
WINDOW 123 0 0 Left 0
WINDOW 39 0 0 Left 0
SYMATTR InstName V5
SYMATTR Value 10
TEXT -48 -80 Left 2 !.ac dec 20 1e-3 1e5
